Version 4
SHEET 1 2888 680
WIRE 800 -576 640 -576
WIRE 1936 -576 800 -576
WIRE 2240 -576 1936 -576
WIRE 2528 -576 2240 -576
WIRE 640 -528 640 -576
WIRE 800 -512 800 -576
WIRE 928 -512 800 -512
WIRE 1056 -512 928 -512
WIRE 1184 -512 1056 -512
WIRE 1344 -512 1184 -512
WIRE 1472 -512 1344 -512
WIRE 1936 -512 1936 -576
WIRE 2240 -512 2240 -576
WIRE 2528 -496 2528 -576
WIRE 800 -480 800 -512
WIRE 928 -480 928 -512
WIRE 1056 -480 1056 -512
WIRE 1184 -480 1184 -512
WIRE 1344 -480 1344 -512
WIRE 1472 -480 1472 -512
WIRE 1936 -416 1936 -448
WIRE 2240 -416 2240 -448
WIRE 640 -400 640 -448
WIRE 2528 -400 2528 -432
WIRE 800 -368 800 -416
WIRE 928 -368 928 -416
WIRE 1056 -368 1056 -416
WIRE 1184 -368 1184 -416
WIRE 1344 -368 1344 -416
WIRE 1472 -368 1472 -416
WIRE 1936 -320 1936 -352
WIRE 2240 -320 2240 -352
WIRE 2528 -304 2528 -336
WIRE 800 -256 800 -304
WIRE 928 -256 928 -304
WIRE 1056 -256 1056 -304
WIRE 1184 -256 1184 -304
WIRE 1344 -256 1344 -304
WIRE 1472 -256 1472 -304
WIRE 1936 -224 1936 -256
WIRE 2240 -224 2240 -256
WIRE 2528 -208 2528 -240
WIRE 800 -128 800 -192
WIRE 928 -128 928 -192
WIRE 1056 -128 1056 -192
WIRE 1184 -128 1184 -192
WIRE 1344 -128 1344 -192
WIRE 1472 -128 1472 -192
WIRE 1936 -128 1936 -160
WIRE 2240 -128 2240 -160
WIRE 2528 -112 2528 -144
WIRE 192 -80 0 -80
WIRE 0 -48 0 -80
WIRE 800 -48 800 -64
WIRE 928 -48 928 -64
WIRE 928 -48 800 -48
WIRE 1056 -48 1056 -64
WIRE 1056 -48 928 -48
WIRE 1184 -48 1184 -64
WIRE 1184 -48 1056 -48
WIRE 1344 -48 1344 -64
WIRE 1344 -48 1184 -48
WIRE 1472 -48 1472 -64
WIRE 1472 -48 1344 -48
WIRE 1648 -48 1472 -48
WIRE 1936 -16 1936 -64
WIRE 2240 -16 2240 -64
WIRE 2240 -16 1936 -16
WIRE 2528 -16 2528 -48
WIRE 2528 -16 2240 -16
WIRE 2800 -16 2528 -16
WIRE 672 32 544 32
WIRE 544 80 544 32
WIRE 1616 80 1424 80
WIRE 1424 112 1424 80
WIRE 192 128 192 -80
WIRE 160 144 96 144
WIRE 288 160 224 160
WIRE 336 160 288 160
WIRE 496 160 416 160
WIRE -160 176 -384 176
WIRE -48 176 -80 176
WIRE 160 176 -48 176
WIRE 288 192 288 160
WIRE 2096 192 1968 192
WIRE -48 208 -48 176
WIRE 192 224 192 192
WIRE 1968 240 1968 192
WIRE -384 256 -384 176
WIRE 96 288 96 144
WIRE 288 288 288 256
WIRE 288 288 96 288
WIRE 320 288 288 288
WIRE 544 288 544 176
WIRE 544 288 400 288
WIRE 1616 288 1616 80
WIRE -48 304 -48 288
WIRE 1584 304 1520 304
WIRE 1712 320 1648 320
WIRE 1760 320 1712 320
WIRE 1920 320 1840 320
WIRE 544 336 544 288
WIRE 1264 336 1040 336
WIRE 1376 336 1344 336
WIRE 1584 336 1376 336
WIRE 1712 352 1712 320
WIRE -384 368 -384 336
WIRE 1376 368 1376 336
WIRE 1616 384 1616 352
WIRE 1040 416 1040 336
WIRE 544 448 544 416
WIRE 1520 448 1520 304
WIRE 1712 448 1712 416
WIRE 1712 448 1520 448
WIRE 1744 448 1712 448
WIRE 1968 448 1968 336
WIRE 1968 448 1824 448
WIRE 1376 464 1376 448
WIRE 1968 496 1968 448
WIRE 1040 528 1040 496
WIRE 1968 608 1968 576
FLAG 192 224 0
FLAG 0 32 0
FLAG -384 368 0
FLAG -48 304 0
FLAG 544 448 0
FLAG 672 32 LED-
FLAG 1648 -48 LED-
FLAG 640 -400 0
FLAG 1616 384 0
FLAG 1424 192 0
FLAG 1040 528 0
FLAG 1376 464 0
FLAG 1968 608 0
FLAG 2096 192 RLED-
FLAG 2800 -16 RLED-
SYMBOL OpAmps\\UniversalOpAmp2 192 160 R0
SYMATTR InstName U1
SYMATTR Value2 Avol=1Meg GBW=5.5Meg Slew=2Meg
SYMATTR SpiceLine Ilimit=50m Rail=0 Vos=0
SYMBOL res 416 272 R90
WINDOW 0 0 56 VBottom 2
WINDOW 3 32 56 VTop 2
SYMATTR InstName R1
SYMATTR Value 1k
SYMBOL cap 272 192 R0
SYMATTR InstName C1
SYMATTR Value 10n
SYMBOL res 432 144 R90
WINDOW 0 0 56 VBottom 2
WINDOW 3 32 56 VTop 2
SYMATTR InstName R2
SYMATTR Value 100
SYMBOL voltage -384 240 R0
WINDOW 123 0 0 Left 0
WINDOW 39 0 0 Left 0
SYMATTR InstName V1
SYMATTR Value PULSE(0 3.3 0 20n 20n 500u 1m 20000)
SYMBOL voltage 0 -64 R0
WINDOW 123 0 0 Left 0
WINDOW 39 0 0 Left 0
SYMATTR InstName V2
SYMATTR Value 3.3
SYMBOL res -64 192 R0
SYMATTR InstName R3
SYMATTR Value 10k
SYMBOL res 528 320 R0
SYMATTR InstName R4
SYMATTR Value 1.5
SYMBOL nmos 496 80 R0
SYMATTR InstName M1
SYMATTR Value AO4614B_N
SYMBOL LED 784 -256 R0
SYMATTR InstName D1
SYMATTR Value L128-xxyyCA3500001
SYMATTR Description Diode
SYMATTR Type diode
SYMBOL LED 784 -368 R0
SYMATTR InstName D7
SYMATTR Value L128-xxyyCA3500001
SYMATTR Description Diode
SYMATTR Type diode
SYMBOL LED 784 -480 R0
SYMATTR InstName D10
SYMATTR Value L128-xxyyCA3500001
SYMATTR Description Diode
SYMATTR Type diode
SYMBOL voltage 640 -544 R0
WINDOW 123 0 0 Left 0
WINDOW 39 0 0 Left 0
SYMATTR InstName V3
SYMATTR Value 12
SYMBOL res -64 160 R90
WINDOW 0 0 56 VBottom 2
WINDOW 3 32 56 VTop 2
SYMATTR InstName R5
SYMATTR Value 100k
SYMBOL LED 1920 -320 R0
SYMATTR InstName D19
SYMATTR Value L128-RED1003500000
SYMATTR Description Diode
SYMATTR Type diode
SYMBOL LED 912 -256 R0
SYMATTR InstName D2
SYMATTR Value L128-xxyyCA3500001
SYMATTR Description Diode
SYMATTR Type diode
SYMBOL LED 912 -368 R0
SYMATTR InstName D3
SYMATTR Value L128-xxyyCA3500001
SYMATTR Description Diode
SYMATTR Type diode
SYMBOL LED 912 -480 R0
SYMATTR InstName D4
SYMATTR Value L128-xxyyCA3500001
SYMATTR Description Diode
SYMATTR Type diode
SYMBOL LED 1040 -256 R0
SYMATTR InstName D5
SYMATTR Value L128-xxyyCA3500001
SYMATTR Description Diode
SYMATTR Type diode
SYMBOL LED 1040 -368 R0
SYMATTR InstName D6
SYMATTR Value L128-xxyyCA3500001
SYMATTR Description Diode
SYMATTR Type diode
SYMBOL LED 1040 -480 R0
SYMATTR InstName D8
SYMATTR Value L128-xxyyCA3500001
SYMATTR Description Diode
SYMATTR Type diode
SYMBOL LED 1168 -256 R0
SYMATTR InstName D9
SYMATTR Value L128-xxyyCA3500001
SYMATTR Description Diode
SYMATTR Type diode
SYMBOL LED 1168 -368 R0
SYMATTR InstName D11
SYMATTR Value L128-xxyyCA3500001
SYMATTR Description Diode
SYMATTR Type diode
SYMBOL LED 1168 -480 R0
SYMATTR InstName D12
SYMATTR Value L128-xxyyCA3500001
SYMATTR Description Diode
SYMATTR Type diode
SYMBOL LED 1328 -256 R0
SYMATTR InstName D13
SYMATTR Value L128-xxyyCA3500001
SYMATTR Description Diode
SYMATTR Type diode
SYMBOL LED 1328 -368 R0
SYMATTR InstName D14
SYMATTR Value L128-xxyyCA3500001
SYMATTR Description Diode
SYMATTR Type diode
SYMBOL LED 1328 -480 R0
SYMATTR InstName D15
SYMATTR Value L128-xxyyCA3500001
SYMATTR Description Diode
SYMATTR Type diode
SYMBOL LED 1456 -256 R0
SYMATTR InstName D16
SYMATTR Value L128-xxyyCA3500001
SYMATTR Description Diode
SYMATTR Type diode
SYMBOL LED 1456 -368 R0
SYMATTR InstName D17
SYMATTR Value L128-xxyyCA3500001
SYMATTR Description Diode
SYMATTR Type diode
SYMBOL LED 1456 -480 R0
SYMATTR InstName D18
SYMATTR Value L128-xxyyCA3500001
SYMATTR Description Diode
SYMATTR Type diode
SYMBOL LED 1456 -128 R0
SYMATTR InstName D25
SYMATTR Value L128-xxyyCA3500001
SYMATTR Description Diode
SYMATTR Type diode
SYMBOL LED 1328 -128 R0
SYMATTR InstName D26
SYMATTR Value L128-xxyyCA3500001
SYMATTR Description Diode
SYMATTR Type diode
SYMBOL LED 1168 -128 R0
SYMATTR InstName D27
SYMATTR Value L128-xxyyCA3500001
SYMATTR Description Diode
SYMATTR Type diode
SYMBOL LED 1040 -128 R0
SYMATTR InstName D28
SYMATTR Value L128-xxyyCA3500001
SYMATTR Description Diode
SYMATTR Type diode
SYMBOL LED 912 -128 R0
SYMATTR InstName D29
SYMATTR Value L128-xxyyCA3500001
SYMATTR Description Diode
SYMATTR Type diode
SYMBOL LED 784 -128 R0
SYMATTR InstName D30
SYMATTR Value L128-xxyyCA3500001
SYMATTR Description Diode
SYMATTR Type diode
SYMBOL OpAmps\\UniversalOpAmp2 1616 320 R0
SYMATTR InstName U2
SYMATTR Value2 Avol=1Meg GBW=5.5Meg Slew=2Meg
SYMATTR SpiceLine Ilimit=50m Rail=0 Vos=0
SYMBOL res 1840 432 R90
WINDOW 0 0 56 VBottom 2
WINDOW 3 32 56 VTop 2
SYMATTR InstName R6
SYMATTR Value 1k
SYMBOL cap 1696 352 R0
SYMATTR InstName C2
SYMATTR Value 10n
SYMBOL res 1856 304 R90
WINDOW 0 0 56 VBottom 2
WINDOW 3 32 56 VTop 2
SYMATTR InstName R7
SYMATTR Value 100
SYMBOL voltage 1040 400 R0
WINDOW 123 0 0 Left 0
WINDOW 39 0 0 Left 0
SYMATTR InstName V4
SYMATTR Value PULSE(0 3.3 0 20n 20n 500u 1m 20000)
SYMBOL voltage 1424 96 R0
WINDOW 123 0 0 Left 0
WINDOW 39 0 0 Left 0
SYMATTR InstName V5
SYMATTR Value 3.3
SYMBOL res 1360 352 R0
SYMATTR InstName R8
SYMATTR Value 10k
SYMBOL res 1952 480 R0
SYMATTR InstName R9
SYMATTR Value 1.69
SYMBOL nmos 1920 240 R0
SYMATTR InstName M2
SYMATTR Value AO4614B_N
SYMBOL res 1360 320 R90
WINDOW 0 0 56 VBottom 2
WINDOW 3 32 56 VTop 2
SYMATTR InstName R10
SYMATTR Value 100k
SYMBOL LED 1920 -224 R0
SYMATTR InstName D20
SYMATTR Value L128-RED1003500000
SYMATTR Description Diode
SYMATTR Type diode
SYMBOL LED 1920 -128 R0
SYMATTR InstName D21
SYMATTR Value L128-RED1003500000
SYMATTR Description Diode
SYMATTR Type diode
SYMBOL LED 1920 -416 R0
SYMATTR InstName D22
SYMATTR Value L128-RED1003500000
SYMATTR Description Diode
SYMATTR Type diode
SYMBOL LED 1920 -512 R0
SYMATTR InstName D23
SYMATTR Value L128-RED1003500000
SYMATTR Description Diode
SYMATTR Type diode
SYMBOL LED 2224 -320 R0
SYMATTR InstName D24
SYMATTR Value L128-RED1003500000
SYMATTR Description Diode
SYMATTR Type diode
SYMBOL LED 2224 -224 R0
SYMATTR InstName D31
SYMATTR Value L128-RED1003500000
SYMATTR Description Diode
SYMATTR Type diode
SYMBOL LED 2224 -128 R0
SYMATTR InstName D32
SYMATTR Value L128-RED1003500000
SYMATTR Description Diode
SYMATTR Type diode
SYMBOL LED 2224 -416 R0
SYMATTR InstName D33
SYMATTR Value L128-RED1003500000
SYMATTR Description Diode
SYMATTR Type diode
SYMBOL LED 2224 -512 R0
SYMATTR InstName D34
SYMATTR Value L128-RED1003500000
SYMATTR Description Diode
SYMATTR Type diode
SYMBOL LED 2512 -304 R0
SYMATTR InstName D35
SYMATTR Value L128-RED1003500000
SYMATTR Description Diode
SYMATTR Type diode
SYMBOL LED 2512 -208 R0
SYMATTR InstName D36
SYMATTR Value L128-RED1003500000
SYMATTR Description Diode
SYMATTR Type diode
SYMBOL LED 2512 -112 R0
SYMATTR InstName D37
SYMATTR Value L128-RED1003500000
SYMATTR Description Diode
SYMATTR Type diode
SYMBOL LED 2512 -400 R0
SYMATTR InstName D38
SYMATTR Value L128-RED1003500000
SYMATTR Description Diode
SYMATTR Type diode
SYMBOL LED 2512 -496 R0
SYMATTR InstName D39
SYMATTR Value L128-RED1003500000
SYMATTR Description Diode
SYMATTR Type diode
TEXT -416 472 Left 2 !.tran 0.1
